=
     RDKit          3D

 11 12  0  0  0  0  0  0  0  0999 V2000
   36.0460  -33.2530  -18.6740 C   0  0  0  0  0  0  0  0  0  0  0  0
   36.1360  -33.8770  -17.4240 C   0  0  0  0  0  0  0  0  0  0  0  0
   37.6040  -35.7390  -17.7920 O   0  0  0  0  0  0  0  0  0  0  0  0
   35.3640  -33.4880  -16.3460 C   0  0  0  0  0  0  0  0  0  0  0  0
   35.7150  -34.2270  -15.2320 N   0  0  0  0  0  0  0  0  0  0  0  0
   35.2450  -34.0980  -13.9120 C   0  0  0  0  0  0  0  0  0  0  0  0
   34.2930  -31.7980  -17.7370 C   0  0  0  0  0  0  0  0  0  0  0  0
   36.9260  -34.9650  -17.0050 C   0  0  0  0  0  0  0  0  0  0  0  0
   35.0540  -32.2190  -18.7890 C   0  0  0  0  0  0  0  0  0  0  0  0
   36.6610  -35.1820  -15.6030 C   0  0  0  0  0  0  0  0  0  0  0  0
   34.4280  -32.4220  -16.4830 C   0  0  0  0  0  0  0  0  0  0  0  0
  1  9  2  0
  1  2  1  0
  2  8  1  0
  2  4  2  0
  3  8  1  0
  4 11  1  0
  4  5  1  0
  5 10  1  0
  5  6  1  0
  7  9  1  0
  7 11  2  0
  8 10  2  0
M  END
$$$$
